pglib-opf-21.07/sad/pglib_opf_case30000_goc__sad.m
%%%%%%%%%%%%%%%%%%%%%%%%%%%%%%%%%%%%%%%%%%%%%%%%%%%%%%%%%%%%%%%%%%%%%%%%%%%
%%%%                                                                  %%%%%
%%%%    IEEE PES Power Grid Library - Optimal Power Flow - v21.07     %%%%%
%%%%          (https://github.com/power-grid-lib/pglib-opf)           %%%%%
%%%%             Benchmark Group - Small Angle Difference             %%%%%
%%%%                         29 - July - 2021                         %%%%%
%%%%                                                                  %%%%%
%%%%%%%%%%%%%%%%%%%%%%%%%%%%%%%%%%%%%%%%%%%%%%%%%%%%%%%%%%%%%%%%%%%%%%%%%%%
function mpc = pglib_opf_case30000_goc__sad
mpc.version = '2';
mpc.baseMVA = 100.0;

%% bus data
%	bus_i	type	Pd	Qd	Gs	Bs	area	Vm	Va	baseKV	zone	Vmax	Vmin
mpc.bus = [
	1	 1	 2.61	 0.801	 0.0	 -10.089936602	 1	    1.00000	    0.00000	 138.0	 1	    1.10000	    0.90000;
	2	 1	 0.847	 0.123	 0.0	 0.0	 1	    1.00000	    0.00000	 138.0	 1	    1.10000	    0.90000;
	3	 1	 1.994	 0.631	 0.0	 0.0	 1	    1.00000	    0.00000	 138.0	 1	    1.10000	    0.90000;
	4	 1	 1.963	 0.393	 0.0	 0.0	 1	    1.00000	    0.00000	 138.0	 1	    1.10000	    0.90000;
	5	 1	 0.0	 0.0	 0.0	 0.0	 1	    1.00000	    0.00000	 138.0	 1	    1.10000	    0.90000;
	6	 1	 3.152	 0.345	 0.0	 0.0	 1	    1.00000	    0.00000	 138.0	 1	    1.10000	    0.90000;
	7	 1	 0.0	 0.0	 0.0	 0.0	 1	    1.00000	    0.00000	 138.0	 1	    1.10000	    0.90000;
	8	 1	 0.0	 0.0	 0.0	 0.0	 1	    1.00000	    0.00000	 138.0	 1	    1.10000	    0.90000;
	9	 1	 0.0	 0.0	 0.0	 0.0	 1	    1.00000	    0.00000	 138.0	 1	    1.10000	    0.90000;
	10	 1	 3.857	 1.324	 0.0	 0.0	 1	    1.00000	    0.00000	 138.0	 1	    1.10000	    0.90000;
	11	 1	 0.0	 0.0	 0.0	 0.0	 1	    1.00000	    0.00000	 138.0	 1	    1.10000	    0.90000;
	12	 1	 3.857	 1.363	 0.0	 0.0	 1	    1.00000	    0.00000	 138.0	 1	    1.10000	    0.90000;
	13	 1	 0.0	 0.0	 0.0	 0.0	 1	    1.00000	    0.00000	 138.0	 1	    1.10000	    0.90000;
	14	 1	 0.0	 0.0	 0.0	 0.0	 1	    1.00000	    0.00000	 138.0	 1	    1.10000	    0.90000;
	15	 1	 0.0	 0.0	 0.0	 0.0	 1	    1.00000	    0.00000	 138.0	 1	    1.10000	    0.90000;
	16	 1	 3.857	 1.147	 0.0	 0.0	 1	    1.00000	    0.00000	 138.0	 1	    1.10000	    0.90000;
	17	 1	 0.0	 0.0	 0.0	 0.0	 1	    1.00000	    0.00000	 138.0	 1	    1.10000	    0.90000;
	18	 1	 0.0	 0.0	 0.0	 0.0	 1	    1.00000	    0.00000	 138.0	 1	    1.10000	    0.90000;
	19	 1	 8.93	 2.175	 0.0	 0.0	 1	    1.00000	    0.00000	 138.0	 1	    1.10000	    0.90000;
	20	 1	 0.0	 0.0	 0.0	 0.0	 1	    1.00000	    0.00000	 138.0	 1	    1.10000	    0.90000;
	21	 1	 0.0	 0.0	 0.0	 0.0	 1	    1.00000	    0.00000	 138.0	 1	    1.10000	    0.90000;
	22	 1	 3.8	 1.174	 0.0	 0.0	 1	    1.00000	    0.00000	 138.0	 1	    1.10000	    0.90000;
	23	 1	 2.745	 1.136	 0.0	 0.0	 1	    1.00000	    0.00000	 138.0	 1	    1.10000	    0.90000;
	24	 1	 4.59	 0.923	 0.0	 0.0	 1	    1.00000	    0.00000	 138.0	 1	    1.10000	    0.90000;
	25	 1	 0.0	 0.0	 0.0	 0.0	 1	    1.00000	    0.00000	 138.0	 1	    1.10000	    0.90000;
	26	 1	 0.0	 0.0	 0.0	 0.0	 1	    1.00000	    0.00000	 138.0	 1	    1.10000	    0.90000;
	27	 1	 4.306	 1.025	 0.0	 0.0	 1	    1.00000	    0.00000	 138.0	 1	    1.10000	    0.90000;
	28	 1	 0.0	 0.0	 0.0	 0.0	 1	    1.00000	    0.00000	 138.0	 1	    1.10000	    0.90000;
	29	 1	 0.0	 0.0	 0.0	 -1.23865450627	 1	    1.00000	    0.00000	 138.0	 1	    1.10000	    0.90000;
	30	 1	 2.642	 0.481	 0.0	 0.0	 1	    1.00000	    0.00000	 138.0	 1	    1.10000	    0.90000;
	31	 1	 0.0	 0.0	 0.0	 -11.6319288661	 1	    1.00000	    0.00000	 138.0	 1	    1.10000	    0.90000;
	32	 1	 2.966	 0.623	 0.0	 0.0	 1	    1.00000	    0.00000	 138.0	 1	    1.10000	    0.90000;
	33	 1	 0.0	 0.0	 0.0	 0.0	 1	    1.00000	    0.00000	 138.0	 1	    1.10000	    0.90000;
	34	 1	 0.0	 0.0	 0.0	 0.0	 1	    1.00000	    0.00000	 138.0	 1	    1.10000	    0.90000;
	35	 1	 4.346	 1.191	 0.0	 0.0	 1	    1.00000	    0.00000	 138.0	 1	    1.10000	    0.90000;
	36	 1	 4.196	 0.15	 0.0	 0.0	 1	    1.00000	    0.00000	 138.0	 1	    1.10000	    0.90000;
	37	 1	 3.865	 2.342	 0.0	 0.0	 1	    1.00000	    0.00000	 138.0	 1	    1.10000	    0.90000;
	38	 1	 0.0	 0.0	 0.0	 0.0	 1	    1.00000	    0.00000	 138.0	 1	    1.10000	    0.90000;
	39	 1	 0.0	 0.0	 0.0	 0.0	 1	    1.00000	    0.00000	 138.0	 1	    1.10000	    0.90000;
	40	 1	 1.083	 0.222	 0.0	 0.0	 1	    1.00000	    0.00000	 138.0	 1	    1.10000	    0.90000;
	41	 1	 7.477	 3.053	 0.0	 5.76185468765	 1	    1.00000	    0.00000	 138.0	 1	    1.10000	    0.90000;
	42	 1	 7.477	 3.833	 0.0	 0.0	 1	    1.00000	    0.00000	 138.0	 1	    1.10000	    0.90000;
	43	 1	 0.0	 0.0	 0.0	 0.0	 1	    1.00000	    0.00000	 138.0	 1	    1.10000	    0.90000;
	44	 1	 7.806	 2.356	 0.0	 0.0	 1	    1.00000	    0.00000	 138.0	 1	    1.10000	    0.90000;
	45	 1	 0.0	 0.0	 0.0	 0.0	 1	    1.00000	    0.00000	 138.0	 1	    1.10000	    0.90000;
	46	 1	 2.453	 0.205	 0.0	 0.0	 1	    1.00000	    0.00000	 138.0	 1	    1.10000	    0.90000;
	47	 1	 8.214	 2.032	 0.0	 0.0	 1	    1.00000	    0.00000	 138.0	 1	    1.10000	    0.90000;
	48	 1	 8.214	 0.847	 0.0	 5.65814673055e-05	 1	    1.00000	    0.00000	 138.0	 1	    1.10000	    0.90000;
	49	 1	 0.0	 0.0	 0.0	 0.0	 1	    1.00000	    0.00000	 138.0	 1	    1.10000	    0.90000;
	50	 1	 8.214	 2.51	 0.0	 0.0	 1	    1.00000	    0.00000	 138.0	 1	    1.10000	    0.90000;
	51	 1	 0.0	 0.0	 0.0	 0.0	 1	    1.00000	    0.00000	 138.0	 1	    1.10000	    0.90000;
	52	 1	 2.887	 1.081	 0.0	 0.0	 1	    1.00000	    0.00000	 138.0	 1	    1.10000	    0.90000;
	53	 1	 12.541	 4.325	 0.0	 0.0	 1	    1.00000	    0.00000	 138.0	 1	    1.10000	    0.90000;
	54	 1	 0.0	 0.0	 0.0	 0.0	 1	    1.00000	    0.00000	 138.0	 1	    1.10000	    0.90000;
	55	 1	 11.729	 5.91	 0.0	 0.0	 1	    1.00000	    0.00000	 138.0	 1	    1.10000	    0.90000;
	56	 1	 11.729	 5.425	 0.0	 0.0	 1	    1.00000	    0.00000	 138.0	 1	    1.10000	    0.90000;
	57	 1	 11.729	 1.166	 0.0	 0.0	 1	    1.00000	    0.00000	 138.0	 1	    1.10000	    0.90000;
	58	 1	 0.0	 0.0	 0.0	 0.0	 1	    1.00000	    0.00000	 138.0	 1	    1.10000	    0.90000;
	59	 1	 1.459	 0.434	 0.0	 0.0	 1	    1.00000	    0.00000	 138.0	 1	    1.10000	    0.90000;
	60	 1	 4.99	 1.926	 0.0	 0.0	 1	    1.00000	    0.00000	 138.0	 1	    1.10000	    0.90000;
	61	 1	 0.0	 0.0	 0.0	 0.0	 1	    1.00000	    0.00000	 138.0	 1	    1.10000	    0.90000;
	62	 1	 0.0	 0.0	 0.0	 0.0	 1	    1.00000	    0.00000	 138.0	 1	    1.10000	    0.90000;
	63	 1	 5.253	 1.124	 0.0	 0.0	 1	    1.00000	    0.00000	 138.0	 1	    1.10000	    0.90000;
	64	 1	 0.0	 0.0	 0.0	 0.0	 1	    1.00000	    0.00000	 138.0	 1	    1.10000	    0.90000;
	65	 1	 5.253	 1.215	 0.0	 0.0	 1	    1.00000	    0.00000	 138.0	 1	    1.10000	    0.90000;
	66	 1	 0.0	 0.0	 0.0	 0.0	 1	    1.00000	    0.00000	 345.0	 1	    1.10000	    0.90000;
	67	 1	 0.0	 0.0	 0.0	 0.0	 1	    1.00000	    0.00000	 138.0	 1	    1.10000	    0.90000;
	68	 1	 11.996	 3.691	 0.0	 0.0	 1	    1.00000	    0.00000	 345.0	 1	    1.10000	    0.90000;
	69	 1	 0.0	 0.0	 0.0	 0.0	 1	    1.00000	    0.00000	 345.0	 1	    1.10000	    0.90000;
	70	 1	 0.0	 0.0	 0.0	 0.0	 1	    1.00000	    0.00000	 345.0	 1	    1.10000	    0.90000;
	71	 1	 1.395	 0.451	 0.0	 0.0	 1	    1.00000	    0.00000	 138.0	 1	    1.10000	    0.90000;
	72	 1	 2.799	 0.722	 0.0	 0.0	 1	    1.00000	    0.00000	 138.0	 1	    1.10000	    0.90000;
	73	 1	 1.637	 0.078	 0.0	 0.0	 1	    1.00000	    0.00000	 138.0	 1	    1.10000	    0.90000;
	74	 1	 2.737	 1.193	 0.0	 0.0	 1	    1.00000	    0.00000	 138.0	 1	    1.10000	    0.90000;
	75	 1	 0.0	 0.0	 0.0	 0.0	 1	    1.00000	    0.00000	 138.0	 1	    1.10000	    0.90000;
	76	 1	 8.47	 1.051	 0.0	 0.0	 1	    1.00000	    0.00000	 138.0	 1	    1.10000	    0.90000;
	77	 1	 0.0	 0.0	 0.0	 0.0	 1	    1.00000	    0.00000	 138.0	 1	    1.10000	    0.90000;
	78	 1	 0.0	 0.0	 0.0	 0.0	 1	    1.00000	    0.00000	 138.0	 1	    1.10000	    0.90000;
	79	 1	 0.0	 0.0	 0.0	 0.0	 1	    1.00000	    0.00000	 138.0	 1	    1.10000	    0.90000;
	80	 1	 6.714	 2.544	 0.0	 0.0	 1	    1.00000	    0.00000	 138.0	 1	    1.10000	    0.90000;
	81	 1	 6.796	 2.799	 0.0	 0.0	 1	    1.00000	    0.00000	 138.0	 1	    1.10000	    0.90000;
	82	 1	 10.27	 2.564	 0.0	 0.0	 1	    1.00000	    0.00000	 138.0	 1	    1.10000	    0.90000;
	83	 1	 0.0	 0.0	 0.0	 0.0	 1	    1.00000	    0.00000	 138.0	 1	    1.10000	    0.90000;
	84	 1	 10.27	 2.294	 0.0	 0.0	 1	    1.00000	    0.00000	 138.0	 1	    1.10000	    0.90000;
	85	 1	 0.0	 0.0	 0.0	 0.0	 1	    1.00000	    0.00000	 138.0	 1	    1.10000	    0.90000;
	86	 1	 10.27	 1.871	 0.0	 0.0	 1	    1.00000	    0.00000	 138.0	 1	    1.10000	    0.90000;
	87	 1	 0.0	 0.0	 0.0	 0.0	 1	    1.00000	    0.00000	 138.0	 1	    1.10000	    0.90000;
	88	 1	 10.27	 0.554	 0.0	 0.0	 1	    1.00000	    0.00000	 138.0	 1	    1.10000	    0.90000;
	89	 1	 5.688	 0.669	 0.0	 0.0	 1	    1.00000	    0.00000	 138.0	 1	    1.10000	    0.90000;
	90	 1	 1.652	 0.069	 0.0	 0.0	 1	    1.00000	    0.00000	 138.0	 1	    1.10000	    0.90000;
	91	 1	 3.308	 0.933	 0.0	 0.0	 1	    1.00000	    0.00000	 138.0	 1	    1.10000	    0.90000;
	92	 1	 6.353	 2.044	 0.0	 0.0	 1	    1.00000	    0.00000	 138.0	 1	    1.10000	    0.90000;
	93	 1	 17.139	 0.476	 0.0	 0.0	 1	    1.00000	    0.00000	 138.0	 1	    1.10000	    0.90000;
	94	 1	 17.139	 3.322	 0.0	 0.0	 1	    1.00000	    0.00000	 138.0	 1	    1.10000	    0.90000;
	95	 1	 17.139	 1.099	 0.0	 0.0	 1	    1.00000	    0.00000	 138.0	 1	    1.10000	    0.90000;
	96	 1	 17.139	 5.895	 0.0	 0.0	 1	    1.00000	    0.00000	 138.0	 1	    1.10000	    0.90000;
	97	 1	 0.0	 0.0	 0.0	 0.0	 1	    1.00000	    0.00000	 345.0	 1	    1.10000	    0.90000;
	98	 1	 0.0	 0.0	 0.0	 0.0	 1	    1.00000	    0.00000	 138.0	 1	    1.10000	    0.90000;
	99	 1	 17.913	 4.818	 0.0	 0.0	 1	    1.00000	    0.00000	 345.0	 1	    1.10000	    0.90000;
	100	 1	 0.0	 0.0	 0.0	 0.0	 1	    1.00000	    0.00000	 345.0	 1	    1.10000	    0.90000;
	101	 1	 0.0	 0.0	 0.0	 0.0	 1	    1.00000	    0.00000	 345.0	 1	    1.10000	    0.90000;
	102	 1	 0.0	 0.0	 0.0	 0.0	 1	    1.00000	    0.00000	 345.0	 1	    1.10000	    0.90000;
	103	 1	 8.909	 1.297	 0.0	 0.0	 1	    1.00000	    0.00000	 138.0	 1	    1.10000	    0.90000;
	104	 1	 0.0	 0.0	 0.0	 -19.6640491241	 1	    1.00000	    0.00000	 345.0	 1	    1.10000	    0.90000;
	105	 1	 0.0	 0.0	 0.0	 0.0	 1	    1.00000	    0.00000	 138.0	 1	    1.10000	    0.90000;
	106	 1	 0.0	 0.0	 0.0	 0.0	 1	    1.00000	    0.00000	 345.0	 1	    1.10000	    0.90000;
	107	 1	 5.067	 2.394	 0.0	 0.0	 1	    1.00000	    0.00000	 345.0	 1	    1.10000	    0.90000;
	108	 1	 0.0	 0.0	 0.0	 0.0	 1	    1.00000	    0.00000	 345.0	 1	    1.10000	    0.90000;
	109	 1	 0.0	 0.0	 0.0	 0.0	 1	    1.00000	    0.00000	 345.0	 1	    1.10000	    0.90000;
	110	 1	 4.615	 0.489	 0.0	 0.0	 1	    1.00000	    0.00000	 138.0	 1	    1.10000	    0.90000;
	111	 1	 4.615	 0.527	 0.0	 0.0	 1	    1.00000	    0.00000	 138.0	 1	    1.10000	    0.90000;
	112	 1	 3.298	 0.468	 0.0	 0.0	 1	    1.00000	    0.00000	 138.0	 1	    1.10000	    0.90000;
	113	 1	 12.402	 0.647	 0.0	 0.0	 1	    1.00000	    0.00000	 138.0	 1	    1.10000	    0.90000;
	114	 1	 12.402	 4.08	 0.0	 0.0	 1	    1.00000	    0.00000	 138.0	 1	    1.10000	    0.90000;
	115	 1	 0.0	 0.0	 0.0	 0.0	 1	    1.00000	    0.00000	 345.0	 1	    1.10000	    0.90000;
	116	 1	 0.0	 0.0	 0.0	 0.0	 1	    1.00000	    0.00000	 138.0	 1	    1.10000	    0.90000;
	117	 1	 12.402	 3.318	 0.0	 0.0	 1	    1.00000	    0.00000	 345.0	 1	    1.10000	    0.90000;
	118	 1	 0.0	 0.0	 0.0	 0.0	 1	    1.00000	    0.00000	 345.0	 1	    1.10000	    0.90000;
	119	 1	 0.0	 0.0	 0.0	 0.0	 1	    1.00000	    0.00000	 345.0	 1	    1.10000	    0.90000;
	120	 1	 12.402	 4.788	 0.0	 0.0	 1	    1.00000	    0.00000	 138.0	 1	    1.10000	    0.90000;
	121	 1	 13.389	 7.218	 0.0	 0.0	 1	    1.00000	    0.00000	 138.0	 1	    1.10000	    0.90000;
	122	 1	 0.0	 0.0	 0.0	 0.0	 1	    1.00000	    0.00000	 138.0	 1	    1.10000	    0.90000;
	123	 1	 13.855	 7.912	 0.0	 0.0	 1	    1.00000	    0.00000	 138.0	 1	    1.10000	    0.90000;
	124	 1	 0.0	 0.0	 0.0	 0.0	 1	    1.00000	    0.00000	 138.0	 1	    1.10000	    0.90000;
	125	 1	 0.0	 0.0	 0.0	 0.0	 1	    1.00000	    0.00000	 138.0	 1	    1.10000	    0.90000;
	126	 1	 0.0	 0.0	 0.0	 -31.0697738125	 1	    1.00000	    0.00000	 345.0	 1	    1.10000	    0.90000;
	127	 1	 0.0	 0.0	 0.0	 0.0	 1	    1.00000	    0.00000	 138.0	 1	    1.10000	    0.90000;
	128	 1	 13.389	 4.101	 0.0	 0.0	 1	    1.00000	    0.00000	 345.0	 1	    1.10000	    0.90000;
	129	 1	 0.0	 0.0	 0.0	 0.0	 1	    1.00000	    0.00000	 345.0	 1	    1.10000	    0.90000;
	130	 1	 0.0	 0.0	 0.0	 0.0	 1	    1.00000	    0.00000	 345.0	 1	    1.10000	    0.90000;
	131	 1	 13.389	 1.848	 0.0	 0.0	 1	    1.00000	    0.00000	 138.0	 1	    1.10000	    0.90000;
	132	 1	 20.068	 5.433	 0.0	 0.0	 1	    1.00000	    0.00000	 138.0	 1	    1.10000	    0.90000;
	133	 1	 0.0	 0.0	 0.0	 0.0	 1	    1.00000	    0.00000	 138.0	 1	    1.10000	    0.90000;
	134	 1	 18.817	 5.6	 0.0	 0.0	 1	    1.00000	    0.00000	 138.0	 1	    1.10000	    0.90000;
	135	 1	 0.0	 0.0	 0.0	 0.0	 1	    1.00000	    0.00000	 138.0	 1	    1.10000	    0.90000;
	136	 1	 18.817	 1.872	 0.0	 0.0	 1	    1.00000	    0.00000	 138.0	 1	    1.10000	    0.90000;
	137	 1	 18.817	 5.481	 0.0	 0.0	 1	    1.00000	    0.00000	 138.0	 1	    1.10000	    0.90000;
	138	 1	 0.0	 0.0	 0.0	 0.0	 1	    1.00000	    0.00000	 345.0	 1	    1.10000	    0.90000;
	139	 1	 0.0	 0.0	 0.0	 0.0	 1	    1.00000	    0.00000	 138.0	 1	    1.10000	    0.90000;
	140	 1	 18.817	 8.652	 0.0	 0.0	 1	    1.00000	    0.00000	 345.0	 1	    1.10000	    0.90000;
	141	 1	 0.0	 0.0	 0.0	 0.0	 1	    1.00000	    0.00000	 345.0	 1	    1.10000	    0.90000;
	142	 1	 0.0	 0.0	 0.0	 0.0	 1	    1.00000	    0.00000	 345.0	 1	    1.10000	    0.90000;
	143	 1	 11.232	 5.14	 0.0	 0.0	 1	    1.00000	    0.00000	 138.0	 1	    1.10000	    0.90000;
	144	 1	 11.279	 2.142	 0.0	 0.0	 1	    1.00000	    0.00000	 138.0	 1	    1.10000	    0.90000;
	145	 1	 12.671	 2.058	 0.0	 0.0	 1	    1.00000	    0.00000	 138.0	 1	    1.10000	    0.90000;
	146	 1	 12.455	 3.745	 0.0	 0.0	 1	    1.00000	    0.00000	 138.0	 1	    1.10000	    0.90000;
	147	 1	 2.372	 0.459	 0.0	 -3.14869351666	 1	    1.00000	    0.00000	 138.0	 1	    1.10000	    0.90000;
	148	 1	 0.0	 0.0	 0.0	 0.0	 1	    1.00000	    0.00000	 138.0	 1	    1.10000	    0.90000;
	149	 1	 14.508	 8.503	 0.0	 0.0	 1	    1.00000	    0.00000	 138.0	 1	    1.10000	    0.90000;
	150	 1	 14.508	 2.277	 0.0	 0.0	 1	    1.00000	    0.00000	 138.0	 1	    1.10000	    0.90000;
	151	 1	 14.262	 4.125	 0.0	 0.0	 1	    1.00000	    0.00000	 138.0	 1	    1.10000	    0.90000;
	152	 1	 14.508	 3.3	 0.0	 0.0	 1	    1.00000	    0.00000	 138.0	 1	    1.10000	    0.90000;
	153	 1	 1.887	 0.335	 0.0	 0.0	 1	    1.00000	    0.00000	 138.0	 1	    1.10000	    0.90000;
	154	 1	 0.0	 0.0	 0.0	 0.0	 1	    1.00000	    0.00000	 138.0	 1	    1.10000	    0.90000;
	155	 1	 5.371	 3.728	 0.0	 0.0	 1	    1.00000	    0.00000	 138.0	 1	    1.10000	    0.90000;
	156	 1	 0.0	 0.0	 0.0	 0.0	 1	    1.00000	    0.00000	 138.0	 1	    1.10000	    0.90000;
	157	 1	 6.504	 0.761	 0.0	 0.0	 1	    1.00000	    0.00000	 138.0	 1	    1.10000	    0.90000;
	158	 1	 0.0	 0.0	 0.0	 0.0	 1	    1.00000	    0.00000	 138.0	 1	    1.10000	    0.90000;
	159	 1	 0.0	 0.0	 0.0	 0.0	 1	    1.00000	    0.00000	 138.0	 1	    1.10000	    0.90000;
	160	 1	 5.224	 1.635	 0.0	 0.0	 1	    1.00000	    0.00000	 138.0	 1	    1.10000	    0.90000;
	161	 1	 4.772	 1.676	 0.0	 0.0	 1	    1.00000	    0.00000	 138.0	 1	    1.10000	    0.90000;
	162	 1	 0.0	 0.0	 0.0	 0.0	 1	    1.00000	    0.00000	 138.0	 1	    1.10000	    0.90000;
	163	 1	 7.266	 1.214	 0.0	 0.0	 1	    1.00000	    0.00000	 138.0	 1	    1.10000	    0.90000;
	164	 1	 0.0	 0.0	 0.0	 0.0	 1	    1.00000	    0.00000	 138.0	 1	    1.10000	    0.90000;
	165	 1	 0.0	 0.0	 0.0	 0.0	 1	    1.00000	    0.00000	 138.0	 1	    1.10000	    0.90000;
	166	 1	 11.478	 0.912	 0.0	 0.0	 1	    1.00000	    0.00000	 138.0	 1	    1.10000	    0.90000;
	167	 1	 11.478	 1.801	 0.0	 0.0	 1	    1.00000	    0.00000	 138.0	 1	    1.10000	    0.90000;
	168	 1	 11.478	 6.552	 0.0	 0.0	 1	    1.00000	    0.00000	 138.0	 1	    1.10000	    0.90000;
	169	 1	 11.478	 2.292	 0.0	 0.000135319895233	 1	    1.00000	    0.00000	 138.0	 1	    1.10000	    0.90000;
	170	 1	 7.368	 1.162	 0.0	 0.0	 1	    1.00000	    0.00000	 138.0	 1	    1.10000	    0.90000;
	171	 1	 0.0	 0.0	 0.0	 0.0	 1	    1.00000	    0.00000	 138.0	 1	    1.10000	    0.90000;
	172	 1	 6.338	 2.213	 0.0	 0.0	 1	    1.00000	    0.00000	 138.0	 1	    1.10000	    0.90000;
	173	 1	 0.0	 0.0	 0.0	 0.0	 1	    1.00000	    0.00000	 138.0	 1	    1.10000	    0.90000;
	174	 1	 8.979	 2.481	 0.0	 0.0	 1	    1.00000	    0.00000	 138.0	 1	    1.10000	    0.90000;
	175	 1	 0.0	 0.0	 0.0	 0.0	 1	    1.00000	    0.00000	 138.0	 1	    1.10000	    0.90000;
	176	 1	 5.824	 0.996	 0.0	 0.0	 1	    1.00000	    0.00000	 138.0	 1	    1.10000	    0.90000;
	177	 1	 0.0	 0.0	 0.0	 0.0	 1	    1.00000	    0.00000	 138.0	 1	    1.10000	    0.90000;
	178	 1	 6.323	 1.479	 0.0	 0.0	 1	    1.00000	    0.00000	 138.0	 1	    1.10000	    0.90000;
	179	 1	 0.0	 0.0	 0.0	 0.0	 1	    1.00000	    0.00000	 138.0	 1	    1.10000	    0.90000;
	180	 1	 6.323	 1.323	 0.0	 0.0	 1	    1.00000	    0.00000	 138.0	 1	    1.10000	    0.90000;
	181	 1	 0.0	 0.0	 0.0	 0.0	 1	    1.00000	    0.00000	 138.0	 1	    1.10000	    0.90000;
	182	 1	 4.593	 0.452	 0.0	 0.0	 1	    1.00000	    0.00000	 138.0	 1	    1.10000	    0.90000;
	183	 1	 0.0	 0.0	 0.0	 0.0	 1	    1.00000	    0.00000	 138.0	 1	    1.10000	    0.90000;
	184	 1	 18.148	 3.514	 0.0	 0.0	 1	    1.00000	    0.00000	 138.0	 1	    1.10000	    0.90000;
	185	 1	 0.0	 0.0	 0.0	 0.0	 1	    1.00000	    0.00000	 138.0	 1	    1.10000	    0.90000;
	186	 1	 0.0	 0.0	 0.0	 0.0	 1	    1.00000	    0.00000	 138.0	 1	    1.10000	    0.90000;
	187	 1	 18.148	 3.434	 0.0	 0.0	 1	    1.00000	    0.00000	 138.0	 1	    1.10000	    0.90000;
	188	 1	 0.0	 0.0	 0.0	 0.0	 1	    1.00000	    0.00000	 138.0	 1	    1.10000	    0.90000;
	189	 1	 18.148	 3.728	 0.0	 0.0	 1	    1.00000	    0.00000	 138.0	 1	    1.10000	    0.90000;
	190	 1	 0.0	 0.0	 0.0	 0.0	 1	    1.00000	    0.00000	 138.0	 1	    1.10000	    0.90000;
	191	 1	 0.0	 0.0	 0.0	 0.0	 1	    1.00000	    0.00000	 138.0	 1	    1.10000	    0.90000;
	192	 1	 0.0	 0.0	 0.0	 0.0	 1	    1.00000	    0.00000	 345.0	 1	    1.10000	    0.90000;
	193	 1	 0.0	 0.0	 0.0	 0.0	 1	    1.00000	    0.00000	 138.0	 1	    1.10000	    0.90000;
	194	 1	 18.148	 4.64	 0.0	 0.0	 1	    1.00000	    0.00000	 345.0	 1	    1.10000	    0.90000;
	195	 1	 0.0	 0.0	 0.0	 0.0	 1	    1.00000	    0.00000	 345.0	 1	    1.10000	    0.90000;
	196	 1	 0.0	 0.0	 0.0	 0.0	 1	    1.00000	    0.00000	 345.0	 1	    1.10000	    0.90000;
	197	 1	 3.237	 1.717	 0.0	 0.000114653871858	 1	    1.00000	    0.00000	 138.0	 1	    1.10000	    0.90000;
	198	 1	 2.266	 0.469	 0.0	 0.0	 1	    1.00000	    0.00000	 138.0	 1	    1.10000	    0.90000;
	199	 1	 0.0	 0.0	 0.0	 0.0	 1	    1.00000	    0.00000	 138.0	 1	    1.10000	    0.90000;
	200	 1	 0.0	 0.0	 0.0	 0.0	 1	    1.00000	    0.00000	 138.0	 1	    1.10000	    0.90000;
...
];

%% generator data
%	bus	Pg	Qg	Qmax	Qmin	Vg	mBase	status	Pmax	Pmin
mpc.gen = [
	2357	 619.881	 -18.6815	 415.68	 -453.043	 1.0	 1082.5	 1	 1082.5	 157.262;
	2358	 603.6565	 -18.6815	 415.68	 -453.043	 1.0	 1082.5	 1	 1082.5	 124.813;
	2359	 767.9365	 -18.6815	 415.68	 -453.043	 1.0	 1082.5	 1	 1082.5	 453.373;
	2360	 598.53	 -18.6815	 415.68	 -453.043	 1.0	 1082.5	 1	 1082.5	 114.56;
	2361	 797.945	 -18.6815	 415.68	 -453.043	 1.0	 1082.5	 1	 1082.5	 513.39;
	2362	 760.35	 -18.6815	 415.68	 -453.043	 1.0	 1082.5	 1	 1082.5	 438.2;
	2367	 3.761	 0.955	 2.189	 -0.279	 1.0	 5.7	 1	 5.7	 1.822;
	2367	 4.1785	 0.955	 2.189	 -0.279	 1.0	 5.7	 1	 5.7	 2.657;
	2368	 3.59	 0.955	 2.189	 -0.279	 1.0	 5.7	 1	 5.7	 1.48;
	2368	 3.321	 0.955	 2.189	 -0.279	 1.0	 5.7	 1	 5.7	 0.942;
	2376	 481.417	 125.5425	 340.133	 -89.048	 1.0	 729.9	 1	 729.9	 232.934;
	2377	 403.014	 125.5425	 340.133	 -89.048	 1.0	 729.9	 1	 729.9	 76.128;
	2383	 10.76	 2.479	 5.683	 -0.725	 1.0	 14.8	 1	 14.8	 6.72;
	2391	 167.2445	 46.3005	 118.427	 -25.826	 1.0	 232.67	 1	 232.667	 101.822;
	2392	 154.0525	 46.3005	 118.427	 -25.826	 1.0	 232.67	 1	 232.667	 75.438;
	2393	 149.3295	 46.3005	 118.427	 -25.826	 1.0	 232.67	 1	 232.667	 65.992;
	2400	 194.439	 9.046	 55.849	 -37.757	 1.0	 262.2	 1	 262.2	 126.678;
	2405	 12.262	 2.814	 6.451	 -0.823	 1.0	 16.8	 1	 16.8	 7.724;
	2411	 115.199	 7.038	 43.452	 -29.376	 1.0	 204.0	 1	 204.0	 26.398;
	2419	 88.971	 22.6125	 51.84	 -6.615	 1.0	 135.0	 1	 135.0	 42.942;
	2420	 92.7095	 22.6125	 51.84	 -6.615	 1.0	 135.0	 1	 135.0	 50.419;
	2421	 93.5325	 22.6125	 51.84	 -6.615	 1.0	 135.0	 1	 135.0	 52.065;
	2422	 78.5195	 22.6125	 51.84	 -6.615	 1.0	 135.0	 1	 135.0	 22.039;
	2423	 93.864	 22.6125	 51.84	 -6.615	 1.0	 135.0	 1	 135.0	 52.728;
	2424	 82.7855	 22.6125	 51.84	 -6.615	 1.0	 135.0	 1	 135.0	 30.571;
	2432	 78.578	 4.7025	 29.032	 -19.627	 1.0	 136.3	 1	 136.3	 20.856;
	2433	 77.657	 4.7025	 29.032	 -19.627	 1.0	 136.3	 1	 136.3	 19.014;
	2441	 121.258	 36.2805	 83.174	 -10.613	 1.0	 216.6	 1	 216.6	 25.916;
	2442	 139.6425	 36.2805	 83.174	 -10.613	 1.0	 216.6	 1	 216.6	 62.685;
	2443	 162.261	 36.2805	 83.174	 -10.613	 1.0	 216.6	 1	 216.6	 107.922;
	2444	 132.4445	 36.2805	 83.174	 -10.613	 1.0	 216.6	 1	 216.6	 48.289;
	2445	 161.757	 36.2805	 83.174	 -10.613	 1.0	 216.6	 1	 216.6	 106.914;
	2446	 157.4335	 36.2805	 83.174	 -10.613	 1.0	 216.6	 1	 216.6	 98.267;
	2454	 60.4325	 16.834	 38.592	 -4.924	 1.0	 100.5	 1	 100.5	 20.365;
	2455	 58.559	 16.834	 38.592	 -4.924	 1.0	 100.5	 1	 100.5	 16.618;
	2456	 58.851	 16.834	 38.592	 -4.924	 1.0	 100.5	 1	 100.5	 17.202;
	2457	 72.1925	 16.834	 38.592	 -4.924	 1.0	 100.5	 1	 100.5	 43.885;
	2458	 56.48	 16.834	 38.592	 -4.924	 1.0	 100.5	 1	 100.5	 12.46;
	2459	 64.247	 16.834	 38.592	 -4.924	 1.0	 100.5	 1	 100.5	 27.994;
	2464	 3.877	 0.207	 1.278	 -0.864	 1.0	 6.0	 1	 6.0	 1.754;
	2471	 89.3065	 21.6075	 49.536	 -6.321	 1.0	 129.0	 1	 129.0	 49.613;
	2472	 86.8505	 21.6075	 49.536	 -6.321	 1.0	 129.0	 1	 129.0	 44.701;
	2473	 93.291	 21.6075	 49.536	 -6.321	 1.0	 129.0	 1	 129.0	 57.582;
	2474	 75.709	 21.6075	 49.536	 -6.321	 1.0	 129.0	 1	 129.0	 22.418;
	2475	 83.199	 21.6075	 49.536	 -6.321	 1.0	 129.0	 1	 129.0	 37.398;
	2476	 82.1025	 21.6075	 49.536	 -6.321	 1.0	 129.0	 1	 129.0	 35.205;
	2483	 35.0225	 8.777	 20.122	 -2.568	 1.0	 52.4	 1	 52.4	 17.645;
	2484	 30.343	 8.777	 20.122	 -2.568	 1.0	 52.4	 1	 52.4	 8.286;
	2490	 19.851	 4.6065	 10.56	 -1.347	 1.0	 27.5	 1	 27.5	 12.202;
	2497	 56.0175	 2.7015	 16.678	 -11.275	 1.0	 78.3	 1	 78.3	 33.735;
	2498	 49.2605	 2.7015	 16.678	 -11.275	 1.0	 78.3	 1	 78.3	 20.221;
	2504	 8.2825	 2.01	 4.608	 -0.588	 1.0	 12.0	 1	 12.0	 4.565;
	2504	 1.095	 0.251	 0.576	 -0.074	 1.0	 1.5	 1	 1.5	 0.69;
	2511	 21.317	 5.8625	 13.44	 -1.715	 1.0	 35.0	 1	 35.0	 7.634;
	2511	 22.8805	 5.8625	 13.44	 -1.715	 1.0	 35.0	 1	 35.0	 10.761;
	2517	 22.797	 6.03	 13.824	 -1.764	 1.0	 36.0	 1	 36.0	 9.594;
	2517	 26.3525	 6.03	 13.824	 -1.764	 1.0	 36.0	 1	 36.0	 16.705;
	2523	 76.058	 3.633	 22.429	 -15.163	 1.0	 105.3	 1	 105.3	 46.816;
	2531	 112.3445	 25.125	 57.6	 -7.35	 1.0	 150.0	 1	 150.0	 74.689;
	2532	 102.7225	 25.125	 57.6	 -7.35	 1.0	 150.0	 1	 150.0	 55.445;
	2540	 73.5435	 17.571	 40.282	 -5.14	 1.0	 104.9	 1	 104.9	 42.187;
	2541	 67.2935	 17.571	 40.282	 -5.14	 1.0	 104.9	 1	 104.9	 29.687;
	2542	 65.0375	 17.571	 40.282	 -5.14	 1.0	 104.9	 1	 104.9	 25.175;
	2543	 67.4055	 17.571	 40.282	 -5.14	 1.0	 104.9	 1	 104.9	 29.911;
	2544	 60.699	 17.571	 40.282	 -5.14	 1.0	 104.9	 1	 104.9	 16.498;
	2545	 76.9755	 17.571	 40.282	 -5.14	 1.0	 104.9	 1	 104.9	 49.051;
	2550	 29.2745	 8.298	 21.225	 -4.629	 1.0	 41.7	 1	 41.7	 16.849;
	2551	 28.963	 8.298	 21.225	 -4.629	 1.0	 41.7	 1	 41.7	 16.226;
	2551	 24.2415	 8.298	 21.225	 -4.629	 1.0	 41.7	 1	 41.7	 6.783;
	2551	 27.4265	 8.298	 21.225	 -4.629	 1.0	 41.7	 1	 41.7	 13.153;
	2558	 4.4055	 1.34	 3.072	 -0.392	 1.0	 8.0	 1	 8.0	 0.811;
	2558	 5.899	 1.34	 3.072	 -0.392	 1.0	 8.0	 1	 8.0	 3.798;
	2559	 4.574	 1.34	 3.072	 -0.392	 1.0	 8.0	 1	 8.0	 1.148;
	2559	 5.345	 1.34	 3.072	 -0.392	 1.0	 8.0	 1	 8.0	 2.69;
	2565	 19.29	 4.489	 10.291	 -1.313	 1.0	 26.8	 1	 26.8	 11.78;
	2572	 32.2925	 7.638	 17.51	 -2.234	 1.0	 45.6	 1	 45.6	 18.985;
	2572	 29.912	 7.638	 17.51	 -2.234	 1.0	 45.6	 1	 45.6	 14.224;
	2573	 32.8665	 7.638	 17.51	 -2.234	 1.0	 45.6	 1	 45.6	 20.133;
	2573	 32.307	 7.638	 17.51	 -2.234	 1.0	 45.6	 1	 45.6	 19.014;
	2578	 0.1365	 0.0395	 0.09	 -0.011	 1.0	 0.23	 1	 0.233	 0.04;
	2578	 12.9565	 3.618	 8.294	 -1.058	 1.0	 21.6	 1	 21.6	 4.313;
	2578	 0.1405	 0.0395	 0.09	 -0.011	 1.0	 0.23	 1	 0.233	 0.048;
	2578	 0.1725	 0.0395	 0.09	 -0.011	 1.0	 0.23	 1	 0.233	 0.112;
	2578	 0.155	 0.0395	 0.09	 -0.011	 1.0	 0.23	 1	 0.233	 0.077;
	2578	 0.158	 0.0395	 0.09	 -0.011	 1.0	 0.23	 1	 0.233	 0.083;
	2578	 0.1695	 0.0395	 0.09	 -0.011	 1.0	 0.23	 1	 0.233	 0.106;
	2578	 0.2965	 0.067	 0.154	 -0.02	 1.0	 0.4	 1	 0.4	 0.193;
	2578	 0.9405	 0.268	 0.614	 -0.078	 1.0	 1.6	 1	 1.6	 0.281;
	2578	 14.7515	 3.618	 8.294	 -1.058	 1.0	 21.6	 1	 21.6	 7.903;
	2584	 11.0025	 2.5125	 5.76	 -0.735	 1.0	 15.0	 1	 15.0	 7.005;
	2584	 9.896	 2.5125	 5.76	 -0.735	 1.0	 15.0	 1	 15.0	 4.792;
	2591	 8.272	 2.144	 4.915	 -0.627	 1.0	 12.8	 1	 12.8	 3.744;
	2592	 7.0745	 2.144	 4.915	 -0.627	 1.0	 12.8	 1	 12.8	 1.349;
	2592	 9.343	 2.144	 4.915	 -0.627	 1.0	 12.8	 1	 12.8	 5.886;
	2593	 8.591	 2.144	 4.915	 -0.627	 1.0	 12.8	 1	 12.8	 4.382;
	2593	 9.4095	 2.144	 4.915	 -0.627	 1.0	 12.8	 1	 12.8	 6.019;
	2598	 1.5	 0.439	 1.006	 -0.128	 1.0	 2.62	 1	 2.62	 0.38;
	2598	 1.5395	 0.439	 1.006	 -0.128	 1.0	 2.62	 1	 2.62	 0.459;
	2598	 1.534	 0.439	 1.006	 -0.128	 1.0	 2.62	 1	 2.62	 0.448;
	2598	 1.6915	 0.439	 1.006	 -0.128	 1.0	 2.62	 1	 2.62	 0.763;
	2598	 1.552	 0.439	 1.006	 -0.128	 1.0	 2.62	 1	 2.62	 0.484;
	2602	 35.5275	 1.725	 10.65	 -7.2	 1.0	 50.0	 1	 50.0	 21.055;
	2608	 3.025	 0.816	 2.087	 -0.455	 1.0	 4.1	 1	 4.1	 1.95;
	2608	 2.498	 0.816	 2.087	 -0.455	 1.0	 4.1	 1	 4.1	 0.896;
	2609	 2.2935	 0.816	 2.087	 -0.455	 1.0	 4.1	 1	 4.1	 0.487;
	2609	 2.621	 0.816	 2.087	 -0.455	 1.0	 4.1	 1	 4.1	 1.142;
	2610	 2.8085	 0.816	 2.087	 -0.455	 1.0	 4.1	 1	 4.1	 1.517;
	2611	 2.84	 0.816	 2.087	 -0.455	 1.0	 4.1	 1	 4.1	 1.58;
	2616	 0.525	 0.134	 0.307	 -0.039	 1.0	 0.8	 1	 0.8	 0.25;
	2616	 0.5945	 0.134	 0.307	 -0.039	 1.0	 0.8	 1	 0.8	 0.389;
	2616	 0.5375	 0.134	 0.307	 -0.039	 1.0	 0.8	 1	 0.8	 0.275;
	2616	 0.5005	 0.134	 0.307	 -0.039	 1.0	 0.8	 1	 0.8	 0.201;
	2616	 0.992	 0.285	 0.653	 -0.083	 1.0	 1.7	 1	 1.7	 0.284;
	2616	 1.786	 0.4185	 0.96	 -0.123	 1.0	 2.5	 1	 2.5	 1.072;
	2616	 7.714	 2.161	 4.954	 -0.632	 1.0	 12.9	 1	 12.9	 2.528;
	2620	 62.486	 3.105	 19.17	 -12.96	 1.0	 90.0	 1	 90.0	 34.972;
	2628	 18.5855	 4.958	 11.366	 -1.45	 1.0	 29.6	 1	 29.6	 7.571;
	2629	 20.5695	 4.958	 11.366	 -1.45	 1.0	 29.6	 1	 29.6	 11.539;
	2637	 149.383	 43.1165	 110.283	 -24.05	 1.0	 216.67	 1	 216.667	 82.099;
	2638	 131.2645	 43.1165	 110.283	 -24.05	 1.0	 216.67	 1	 216.667	 45.862;
	2639	 150.756	 43.1165	 110.283	 -24.05	 1.0	 216.67	 1	 216.667	 84.845;
	2646	 181.3145	 9.2045	 56.828	 -38.419	 1.0	 266.8	 1	 266.8	 95.829;
	2653	 65.2	 3.374	 20.831	 -14.083	 1.0	 97.8	 1	 97.8	 32.6;
	2658	 1.3865	 0.3685	 0.845	 -0.108	 1.0	 2.2	 1	 2.2	 0.573;
	2658	 1.5425	 0.385	 0.883	 -0.113	 1.0	 2.3	 1	 2.3	 0.785;
	2664	 48.427	 17.472	 44.69	 -9.746	 1.0	 87.8	 1	 87.8	 9.054;
	2670	 164.0955	 49.352	 126.232	 -27.528	 1.0	 248.0	 1	 248.0	 80.191;
	2675	 2.5755	 0.59	 1.352	 -0.172	 1.0	 3.52	 1	 3.52	 1.631;
	2675	 2.4815	 0.59	 1.352	 -0.172	 1.0	 3.52	 1	 3.52	 1.443;
	2675	 2.369	 0.59	 1.352	 -0.172	 1.0	 3.52	 1	 3.52	 1.218;
	2675	 2.622	 0.59	 1.352	 -0.172	 1.0	 3.52	 1	 3.52	 1.724;
	2675	 2.14	 0.59	 1.352	 -0.172	 1.0	 3.52	 1	 3.52	 0.76;
	2682	 227.8385	 68.569	 157.197	 -20.059	 1.0	 409.37	 1	 409.367	 46.31;
	2683	 256.1025	 68.569	 157.197	 -20.059	 1.0	 409.37	 1	 409.367	 102.838;
	2684	 274.8895	 68.569	 157.197	 -20.059	 1.0	 409.37	 1	 409.367	 140.412;
	2685	 272.4775	 68.569	 157.197	 -20.059	 1.0	 409.37	 1	 409.367	 135.588;
	2686	 295.8585	 68.569	 157.197	 -20.059	 1.0	 409.37	 1	 409.367	 182.35;
	2687	 268.1065	 68.569	 157.197	 -20.059	 1.0	 409.37	 1	 409.367	 126.846;
	2692	 4.339	 1.005	 2.304	 -0.294	 1.0	 6.0	 1	 6.0	 2.678;
	2692	 4.239	 1.005	 2.304	 -0.294	 1.0	 6.0	 1	 6.0	 2.478;
	2698	 112.061	 5.2165	 32.206	 -21.773	 1.0	 151.2	 1	 151.2	 72.922;
	2706	 103.5205	 31.7405	 81.186	 -17.705	 1.0	 159.5	 1	 159.5	 47.541;
	2707	 106.9425	 31.7405	 81.186	 -17.705	 1.0	 159.5	 1	 159.5	 54.385;
	2712	 4.058	 1.433	 3.665	 -0.799	 1.0	 7.2	 1	 7.2	 0.916;
	2719	 63.58	 18.706	 47.846	 -10.434	 1.0	 94.0	 1	 94.0	 33.16;
	2720	 55.4855	 18.706	 47.846	 -10.434	 1.0	 94.0	 1	 94.0	 16.971;
	2721	 63.469	 18.706	 47.846	 -10.434	 1.0	 94.0	 1	 94.0	 32.938;
	2722	 64.4235	 18.706	 47.846	 -10.434	 1.0	 94.0	 1	 94.0	 34.847;
	2730	 98.658	 28.2875	 72.354	 -15.779	 1.0	 142.15	 1	 142.15	 55.166;
	2731	 105.4615	 28.2875	 72.354	 -15.779	 1.0	 142.15	 1	 142.15	 68.773;
	2736	 7.0975	 1.675	 3.84	 -0.49	 1.0	 10.0	 1	 10.0	 4.195;
	2740	 0.317	 0.0835	 0.192	 -0.025	 1.0	 0.5	 1	 0.5	 0.134;
	2740	 0.5795	 0.1675	 0.384	 -0.049	 1.0	 1.0	 1	 1.0	 0.159;
	2740	 2.6565	 0.67	 1.536	 -0.196	 1.0	 4.0	 1	 4.0	 1.313;
	2740	 2.8425	 0.67	 1.536	 -0.196	 1.0	 4.0	 1	 4.0	 1.685;
	2740	 2.6385	 0.67	 1.536	 -0.196	 1.0	 4.0	 1	 4.0	 1.277;
	2746	 13.2135	 3.241	 7.43	 -0.948	 1.0	 19.35	 1	 19.35	 7.077;
	2746	 13.806	 3.241	 7.43	 -0.948	 1.0	 19.35	 1	 19.35	 8.262;
	2752	 3.754	 1.0215	 2.342	 -0.299	 1.0	 6.1	 1	 6.1	 1.408;
	2757	 19.025	 4.6815	 10.733	 -1.37	 1.0	 27.95	 1	 27.95	 10.1;
	2758	 18.718	 4.6815	 10.733	 -1.37	 1.0	 27.95	 1	 27.95	 9.486;
	2758	 20.324	 4.6815	 10.733	 -1.37	 1.0	 27.95	 1	 27.95	 12.698;
	2758	 15.611	 4.6815	 10.733	 -1.37	 1.0	 27.95	 1	 27.95	 3.272;
	2766	 107.676	 29.0275	 66.547	 -8.492	 1.0	 173.3	 1	 173.3	 42.052;
	2767	 101.1465	 29.0275	 66.547	 -8.492	 1.0	 173.3	 1	 173.3	 28.993;
	2768	 106.189	 29.0275	 66.547	 -8.492	 1.0	 173.3	 1	 173.3	 39.078;
	2769	 112.941	 29.0275	 66.547	 -8.492	 1.0	 173.3	 1	 173.3	 52.582;
	2770	 117.181	 29.0275	 66.547	 -8.492	 1.0	 173.3	 1	 173.3	 61.062;
	2771	 123.0985	 29.0275	 66.547	 -8.492	 1.0	 173.3	 1	 173.3	 72.897;
	2772	 0.5285	 0.134	 0.307	 -0.039	 1.0	 0.8	 1	 0.8	 0.257;
	2772	 0.478	 0.134	 0.307	 -0.039	 1.0	 0.8	 1	 0.8	 0.156;
	2773	 0.3565	 0.1005	 0.23	 -0.029	 1.0	 0.6	 1	 0.6	 0.113;
	2773	 0.3835	 0.1005	 0.23	 -0.029	 1.0	 0.6	 1	 0.6	 0.167;
	2778	 44.1475	 13.4	 30.72	 -3.92	 1.0	 80.0	 1	 80.0	 8.295;
	2778	 59.6795	 13.4	 30.72	 -3.92	 1.0	 80.0	 1	 80.0	 39.359;
	2778	 54.659	 13.4	 30.72	 -3.92	 1.0	 80.0	 1	 80.0	 29.318;
	2786	 27.401	 7.841	 20.055	 -4.373	 1.0	 39.4	 1	 39.4	 15.402;
	2786	 27.458	 7.841	 20.055	 -4.373	 1.0	 39.4	 1	 39.4	 15.516;
	2787	 26.3785	 7.841	 20.055	 -4.373	 1.0	 39.4	 1	 39.4	 13.357;
	2793	 16.4655	 4.1875	 9.6	 -1.225	 1.0	 25.0	 1	 25.0	 7.931;
	2793	 14.7825	 4.1875	 9.6	 -1.225	 1.0	 25.0	 1	 25.0	 4.565;
	2798	 6.823	 1.675	 3.84	 -0.49	 1.0	 10.0	 1	 10.0	 3.646;
	2803	 1.6515	 0.4645	 1.258	 -0.329	 1.0	 2.7	 1	 2.7	 0.603;
	2804	 1.187	 0.344	 0.932	 -0.244	 1.0	 2.0	 1	 2.0	 0.374;
	2804	 1.1075	 0.344	 0.932	 -0.244	 1.0	 2.0	 1	 2.0	 0.215;
	2805	 1.474	 0.344	 0.932	 -0.244	 1.0	 2.0	 1	 2.0	 0.948;
	2805	 1.1195	 0.344	 0.932	 -0.244	 1.0	 2.0	 1	 2.0	 0.239;
	2806	 1.199	 0.344	 0.932	 -0.244	 1.0	 2.0	 1	 2.0	 0.398;
	2806	 1.254	 0.3095	 0.839	 -0.22	 1.0	 1.8	 1	 1.8	 0.708;
	2807	 0.6615	 0.172	 0.466	 -0.122	 1.0	 1.0	 1	 1.0	 0.323;
	2814	 50.0475	 11.2225	 25.728	 -3.283	 1.0	 67.0	 1	 67.0	 33.095;
	2815	 45.298	 11.2225	 25.728	 -3.283	 1.0	 67.0	 1	 67.0	 23.596;
	2820	 49.5735	 16.835	 43.061	 -9.391	 1.0	 84.6	 1	 84.6	 14.547;
	2820	 60.0315	 16.835	 43.061	 -9.391	 1.0	 84.6	 1	 84.6	 35.463;
	2827	 77.299	 22.6125	 51.84	 -6.615	 1.0	 135.0	 1	 135.0	 19.598;
	2828	 74.751	 22.6125	 51.84	 -6.615	 1.0	 135.0	 1	 135.0	 14.502;
	2829	 78.4725	 22.6125	 51.84	 -6.615	 1.0	 135.0	 1	 135.0	 21.945;
	2830	 82.0635	 22.6125	 51.84	 -6.615	 1.0	 135.0	 1	 135.0	 29.127;
	2831	 94.9035	 22.6125	 51.84	 -6.615	 1.0	 135.0	 1	 135.0	 54.807;
	2832	 90.3705	 22.6125	 51.84	 -6.615	 1.0	 135.0	 1	 135.0	 45.741;
...
];

%% generator cost data
%	2	startup	shutdown	n	c(n-1)	...	c0
mpc.gencost = [
	2	 0.0	 0.0	 3	   0.000000	   0.000000	   0.000000;
	2	 0.0	 0.0	 3	   0.000000	   0.000000	   0.000000;
	2	 0.0	 0.0	 3	   0.000000	   0.000000	   0.000000;
	2	 0.0	 0.0	 3	   0.000000	   0.000000	   0.000000;
	2	 0.0	 0.0	 3	   0.000000	   0.000000	   0.000000;
	2	 0.0	 0.0	 3	   0.000000	   0.000000	   0.000000;
	2	 0.0	 0.0	 3	   0.000000	   0.000000	   0.000000;
	2	 0.0	 0.0	 3	   0.000000	   0.000000	   0.000000;
	2	 0.0	 0.0	 3	   0.000000	   0.000000	   0.000000;
	2	 0.0	 0.0	 3	   0.000000	   0.000000	   0.000000;
	2	 0.0	 0.0	 3	   0.050390	  41.820000	 -18.890000;
	2	 0.0	 0.0	 3	   0.039040	  18.190000	  -9.055000;
	2	 0.0	 0.0	 3	   0.000000	   0.000000	   0.000000;
	2	 0.0	 0.0	 3	   0.013450	  20.970000	  -1.891000;
	2	 0.0	 0.0	 3	   0.016020	  17.960000	  -1.930000;
	2	 0.0	 0.0	 3	   0.016900	  19.410000	  -1.902000;
	2	 0.0	 0.0	 3	   0.000000	   0.000000	   0.000000;
	2	 0.0	 0.0	 3	   0.000000	   0.000000	   0.000000;
	2	 0.0	 0.0	 3	   0.000000	   0.000000	   0.000000;
	2	 0.0	 0.0	 3	   0.000000	   0.000000	   0.000000;
	2	 0.0	 0.0	 3	   0.000000	   0.000000	   0.000000;
	2	 0.0	 0.0	 3	   0.000000	   0.000000	   0.000000;
	2	 0.0	 0.0	 3	   0.000000	   0.000000	   0.000000;
	2	 0.0	 0.0	 3	   0.000000	   0.000000	   0.000000;
	2	 0.0	 0.0	 3	   0.000000	   0.000000	   0.000000;
	2	 0.0	 0.0	 3	   0.000000	   0.000000	   0.000000;
	2	 0.0	 0.0	 3	   0.000000	   0.000000	   0.000000;
	2	 0.0	 0.0	 3	   0.000000	   0.000000	   0.000000;
	2	 0.0	 0.0	 3	   0.000000	   0.000000	   0.000000;
	2	 0.0	 0.0	 3	   0.000000	   0.000000	   0.000000;
	2	 0.0	 0.0	 3	   0.000000	   0.000000	   0.000000;
	2	 0.0	 0.0	 3	   0.000000	   0.000000	   0.000000;
	2	 0.0	 0.0	 3	   0.000000	   0.000000	   0.000000;
	2	 0.0	 0.0	 3	   0.000000	   0.000000	   0.000000;
	2	 0.0	 0.0	 3	   0.000000	   0.000000	   0.000000;
	2	 0.0	 0.0	 3	   0.000000	   0.000000	   0.000000;
	2	 0.0	 0.0	 3	   0.000000	   0.000000	   0.000000;
	2	 0.0	 0.0	 3	   0.000000	   0.000000	   0.000000;
	2	 0.0	 0.0	 3	   0.000000	   0.000000	   0.000000;
	2	 0.0	 0.0	 3	   0.000000	   0.000000	   0.000000;
	2	 0.0	 0.0	 3	   0.000000	   0.000000	   0.000000;
	2	 0.0	 0.0	 3	   0.000000	   0.000000	   0.000000;
	2	 0.0	 0.0	 3	   0.000000	   0.000000	   0.000000;
	2	 0.0	 0.0	 3	   0.000000	   0.000000	   0.000000;
	2	 0.0	 0.0	 3	   0.000000	   0.000000	   0.000000;
	2	 0.0	 0.0	 3	   0.000000	   0.000000	   0.000000;
	2	 0.0	 0.0	 3	   0.000000	   0.000000	   0.000000;
	2	 0.0	 0.0	 3	   0.000000	   0.000000	   0.000000;
	2	 0.0	 0.0	 3	   0.000000	   0.000000	   0.000000;
	2	 0.0	 0.0	 3	   0.000000	   0.000000	   0.000000;
	2	 0.0	 0.0	 3	   0.000000	   0.000000	   0.000000;
	2	 0.0	 0.0	 3	   0.000000	   0.000000	   0.000000;
	2	 0.0	 0.0	 3	   0.000000	   0.000000	   0.000000;
	2	 0.0	 0.0	 3	   0.000000	   0.000000	   0.000000;
	2	 0.0	 0.0	 3	   0.000000	   0.000000	   0.000000;
	2	 0.0	 0.0	 3	   0.000000	   0.000000	   0.000000;
	2	 0.0	 0.0	 3	   0.000000	   0.000000	   0.000000;
	2	 0.0	 0.0	 3	   0.000000	   0.000000	   0.000000;
	2	 0.0	 0.0	 3	   0.000000	   0.000000	   0.000000;
	2	 0.0	 0.0	 3	   0.000000	   0.000000	   0.000000;
	2	 0.0	 0.0	 3	   0.000000	   0.000000	   0.000000;
	2	 0.0	 0.0	 3	   0.000000	   0.000000	   0.000000;
	2	 0.0	 0.0	 3	   0.000000	   0.000000	   0.000000;
	2	 0.0	 0.0	 3	   0.000000	   0.000000	   0.000000;
	2	 0.0	 0.0	 3	   0.000000	   0.000000	   0.000000;
	2	 0.0	 0.0	 3	   0.000000	   0.000000	   0.000000;
	2	 0.0	 0.0	 3	   0.000000	  17.310000	   0.000000;
	2	 0.0	 0.0	 3	   0.000000	  17.190000	   0.000000;
	2	 0.0	 0.0	 3	   0.000000	  14.760000	  -5.365000;
	2	 0.0	 0.0	 3	   0.000000	  19.350000	  -6.316000;
	2	 0.0	 0.0	 3	   0.000000	   0.000000	   0.000000;
	2	 0.0	 0.0	 3	   0.000000	   0.000000	   0.000000;
	2	 0.0	 0.0	 3	   0.000000	   0.000000	   0.000000;
	2	 0.0	 0.0	 3	   0.000000	   0.000000	   0.000000;
	2	 0.0	 0.0	 3	   0.000000	   0.000000	   0.000000;
	2	 0.0	 0.0	 3	   0.000000	   0.000000	   0.000000;
	2	 0.0	 0.0	 3	   0.000000	   0.000000	   0.000000;
	2	 0.0	 0.0	 3	   0.000000	   0.000000	   0.000000;
	2	 0.0	 0.0	 3	   0.000000	   0.000000	   0.000000;
	2	 0.0	 0.0	 3	   0.000000	   0.000000	   0.000000;
	2	 0.0	 0.0	 3	   0.000000	   0.000000	   0.000000;
	2	 0.0	 0.0	 3	   0.000000	   0.000000	   0.000000;
	2	 0.0	 0.0	 3	   0.000000	   0.000000	   0.000000;
	2	 0.0	 0.0	 3	   0.000000	   0.000000	   0.000000;
	2	 0.0	 0.0	 3	   0.000000	   0.000000	   0.000000;
	2	 0.0	 0.0	 3	   0.000000	   0.000000	   0.000000;
	2	 0.0	 0.0	 3	   0.000000	   0.000000	   0.000000;
	2	 0.0	 0.0	 3	   0.000000	   0.000000	   0.000000;
	2	 0.0	 0.0	 3	   0.000000	   0.000000	   0.000000;
	2	 0.0	 0.0	 3	   0.000000	   0.000000	   0.000000;
	2	 0.0	 0.0	 3	   0.000000	   0.000000	   0.000000;
	2	 0.0	 0.0	 3	   0.000000	   0.000000	   0.000000;
	2	 0.0	 0.0	 3	   0.000000	   0.000000	   0.000000;
	2	 0.0	 0.0	 3	   0.000000	   0.000000	   0.000000;
	2	 0.0	 0.0	 3	   0.000000	   0.000000	   0.000000;
	2	 0.0	 0.0	 3	   0.000000	   0.000000	   0.000000;
	2	 0.0	 0.0	 3	   0.000000	   0.000000	   0.000000;
	2	 0.0	 0.0	 3	   0.000000	   0.000000	   0.000000;
	2	 0.0	 0.0	 3	   0.000000	   0.000000	   0.000000;
	2	 0.0	 0.0	 3	   0.000000	   0.000000	   0.000000;
	2	 0.0	 0.0	 3	   0.000000	   0.000000	   0.000000;
	2	 0.0	 0.0	 3	   0.000000	   0.000000	   0.000000;
	2	 0.0	 0.0	 3	   0.000000	  13.780000	   0.000000;
	2	 0.0	 0.0	 3	   0.000000	  14.700000	   0.000000;
	2	 0.0	 0.0	 3	   0.000000	  14.070000	   0.000000;
	2	 0.0	 0.0	 3	   0.000000	  14.240000	   0.000000;
	2	 0.0	 0.0	 3	   0.000000	  17.470000	   0.000000;
	2	 0.0	 0.0	 3	   0.000000	  16.730000	   0.000000;
	2	 0.0	 0.0	 3	   0.000000	   0.000000	   0.000000;
	2	 0.0	 0.0	 3	   0.000000	   0.000000	   0.000000;
	2	 0.0	 0.0	 3	   0.000000	   0.000000	   0.000000;
	2	 0.0	 0.0	 3	   0.000000	   0.000000	   0.000000;
	2	 0.0	 0.0	 3	   0.000000	   0.000000	   0.000000;
	2	 0.0	 0.0	 3	   0.000000	   0.000000	   0.000000;
	2	 0.0	 0.0	 3	   0.000000	   0.000000	   0.000000;
	2	 0.0	 0.0	 3	   0.000000	   0.000000	   0.000000;
	2	 0.0	 0.0	 3	   0.000000	   0.000000	   0.000000;
	2	 0.0	 0.0	 3	   0.000000	   0.000000	   0.000000;
	2	 0.0	 0.0	 3	   0.018420	  19.980000	  -2.245000;
	2	 0.0	 0.0	 3	   0.020850	  17.960000	  -1.902000;
	2	 0.0	 0.0	 3	   0.014940	  16.540000	  -1.853000;
	2	 0.0	 0.0	 3	   0.000000	   0.000000	   0.000000;
	2	 0.0	 0.0	 3	   0.000000	   0.000000	   0.000000;
	2	 0.0	 0.0	 3	   0.000000	   0.000000	   0.000000;
	2	 0.0	 0.0	 3	   0.000000	   0.000000	   0.000000;
	2	 0.0	 0.0	 3	   0.000000	  17.080000	 -21.380000;
	2	 0.0	 0.0	 3	   0.016290	  18.770000	  -2.089000;
	2	 0.0	 0.0	 3	   0.000000	   0.000000	   0.000000;
	2	 0.0	 0.0	 3	   0.000000	   0.000000	   0.000000;
	2	 0.0	 0.0	 3	   0.000000	   0.000000	   0.000000;
	2	 0.0	 0.0	 3	   0.000000	   0.000000	   0.000000;
	2	 0.0	 0.0	 3	   0.000000	   0.000000	   0.000000;
	2	 0.0	 0.0	 3	   0.000000	   0.000000	   0.000000;
	2	 0.0	 0.0	 3	   0.000000	   0.000000	   0.000000;
	2	 0.0	 0.0	 3	   0.000000	   0.000000	   0.000000;
	2	 0.0	 0.0	 3	   0.000000	   0.000000	   0.000000;
	2	 0.0	 0.0	 3	   0.000000	   0.000000	   0.000000;
	2	 0.0	 0.0	 3	   0.000000	   0.000000	   0.000000;
	2	 0.0	 0.0	 3	   0.000000	   0.000000	   0.000000;
	2	 0.0	 0.0	 3	   0.000000	   0.000000	   0.000000;
	2	 0.0	 0.0	 3	   0.000000	   0.000000	   0.000000;
	2	 0.0	 0.0	 3	   0.015380	  16.330000	  -1.218000;
	2	 0.0	 0.0	 3	   0.016080	  17.500000	  -1.364000;
	2	 0.0	 0.0	 3	   0.000000	  14.370000	   0.000000;
	2	 0.0	 0.0	 3	   0.000000	  18.160000	 -39.490000;
	2	 0.0	 0.0	 3	   0.000000	  20.240000	 -33.310000;
	2	 0.0	 0.0	 3	   0.000000	  20.200000	 -45.180000;
	2	 0.0	 0.0	 3	   0.000000	  18.110000	 -41.860000;
	2	 0.0	 0.0	 3	   0.011770	  15.660000	   0.000000;
	2	 0.0	 0.0	 3	   0.000000	  19.860000	   0.000000;
	2	 0.0	 0.0	 3	   0.000000	   0.000000	   0.000000;
	2	 0.0	 0.0	 3	   0.000000	   0.000000	   0.000000;
	2	 0.0	 0.0	 3	   0.000000	   0.000000	   0.000000;
	2	 0.0	 0.0	 3	   0.000000	   0.000000	   0.000000;
	2	 0.0	 0.0	 3	   0.000000	   0.000000	   0.000000;
	2	 0.0	 0.0	 3	   0.000000	   0.000000	   0.000000;
	2	 0.0	 0.0	 3	   0.000000	   0.000000	   0.000000;
	2	 0.0	 0.0	 3	   0.000000	   0.000000	   0.000000;
	2	 0.0	 0.0	 3	   0.000000	   0.000000	   0.000000;
	2	 0.0	 0.0	 3	   0.000000	   0.000000	   0.000000;
	2	 0.0	 0.0	 3	   0.000000	   0.000000	   0.000000;
	2	 0.0	 0.0	 3	   0.000000	   0.000000	   0.000000;
	2	 0.0	 0.0	 3	   0.000000	   0.000000	   0.000000;
	2	 0.0	 0.0	 3	   0.000000	   0.000000	   0.000000;
	2	 0.0	 0.0	 3	   0.000000	   0.000000	   0.000000;
	2	 0.0	 0.0	 3	   0.000000	   0.000000	   0.000000;
	2	 0.0	 0.0	 3	   0.000000	   0.000000	   0.000000;
	2	 0.0	 0.0	 3	   0.000000	   0.000000	   0.000000;
	2	 0.0	 0.0	 3	   0.000000	   0.000000	   0.000000;
	2	 0.0	 0.0	 3	   0.000000	   0.000000	   0.000000;
	2	 0.0	 0.0	 3	   0.000000	   0.000000	   0.000000;
	2	 0.0	 0.0	 3	   0.000000	   0.000000	   0.000000;
	2	 0.0	 0.0	 3	   0.000000	   0.000000	   0.000000;
	2	 0.0	 0.0	 3	   0.000000	   0.000000	   0.000000;
	2	 0.0	 0.0	 3	   0.000000	   0.000000	   0.000000;
	2	 0.0	 0.0	 3	   0.000000	   0.000000	   0.000000;
	2	 0.0	 0.0	 3	   0.000000	  15.000000	   0.000000;
	2	 0.0	 0.0	 3	   0.000000	  17.120000	   0.000000;
	2	 0.0	 0.0	 3	   0.000000	  15.830000	  -4.735000;
	2	 0.0	 0.0	 3	   0.000000	   0.000000	   0.000000;
	2	 0.0	 0.0	 3	   0.000000	   0.000000	   0.000000;
	2	 0.0	 0.0	 3	   0.000000	   0.000000	   0.000000;
	2	 0.0	 0.0	 3	   0.000000	   0.000000	   0.000000;
	2	 0.0	 0.0	 3	   0.000000	   0.000000	   0.000000;
	2	 0.0	 0.0	 3	   0.000000	   0.000000	   0.000000;
	2	 0.0	 0.0	 3	   0.000000	   0.000000	   0.000000;
	2	 0.0	 0.0	 3	   0.000000	   0.000000	   0.000000;
	2	 0.0	 0.0	 3	   0.000000	   0.000000	   0.000000;
	2	 0.0	 0.0	 3	   0.000000	   0.000000	   0.000000;
	2	 0.0	 0.0	 3	   0.000000	   0.000000	   0.000000;
	2	 0.0	 0.0	 3	   0.000000	   0.000000	   0.000000;
	2	 0.0	 0.0	 3	   0.000000	   0.000000	   0.000000;
	2	 0.0	 0.0	 3	   0.000000	  16.430000	 -21.170000;
	2	 0.0	 0.0	 3	   0.000000	  16.430000	   0.000000;
	2	 0.0	 0.0	 3	   0.000000	   0.000000	   0.000000;
	2	 0.0	 0.0	 3	   0.000000	   0.000000	   0.000000;
	2	 0.0	 0.0	 3	   0.000000	   0.000000	   0.000000;
	2	 0.0	 0.0	 3	   0.000000	   0.000000	   0.000000;
	2	 0.0	 0.0	 3	   0.000000	   0.000000	   0.000000;
	2	 0.0	 0.0	 3	   0.000000	   0.000000	   0.000000;
...
];

%% branch data
%	fbus	tbus	r	x	b	rateA	rateB	rateC	ratio	angle	status	angmin	angmax
mpc.branch = [
	1	 2	 0.0272635	 0.14777	 0.0399654	 194.5	 194.5	 194.5	 0.0	 0.0	 1	 -10.7369849436	 10.7369849436;
	3	 1	 0.0113837	 0.0721098	 0.0306593	 196.3	 196.3	 196.3	 0.0	 0.0	 1	 -10.7369849436	 10.7369849436;
	4	 3	 0.00339302	 0.0202744	 0.00917669	 199.7	 199.7	 199.7	 0.0	 0.0	 1	 -10.7369849436	 10.7369849436;
	5	 6	 0.000235779	 0.00102372	 0.0	 99999.0	 99999.0	 99999.0	 0.0	 0.0	 1	 -10.7369849436	 10.7369849436;
	5	 7	 0.000274856	 0.00114808	 0.0	 99999.0	 99999.0	 99999.0	 0.0	 0.0	 1	 -10.7369849436	 10.7369849436;
	7	 20	 0.0109356	 0.0562625	 0.022652	 213.7	 213.7	 213.7	 0.0	 0.0	 1	 -10.7369849436	 10.7369849436;
	7	 25	 0.0181525	 0.117342	 0.0292627	 226.4	 226.4	 226.4	 0.0	 0.0	 1	 -10.7369849436	 10.7369849436;
	7	 39	 0.0146267	 0.101441	 0.0300516	 195.0	 195.0	 195.0	 0.0	 0.0	 1	 -10.7369849436	 10.7369849436;
	8	 9	 0.000228649	 0.00117253	 0.0	 99999.0	 99999.0	 99999.0	 0.0	 0.0	 1	 -10.7369849436	 10.7369849436;
	8	 10	 0.000241551	 0.00103193	 0.0	 99999.0	 99999.0	 99999.0	 0.0	 0.0	 1	 -10.7369849436	 10.7369849436;
	9	 15	 0.00202418	 0.0110654	 0.00336027	 175.7	 175.7	 175.7	 0.0	 0.0	 1	 -10.7369849436	 10.7369849436;
	11	 12	 0.000293247	 0.00104515	 0.0	 99999.0	 99999.0	 99999.0	 0.0	 0.0	 1	 -10.7369849436	 10.7369849436;
	11	 13	 0.000290136	 0.00113652	 0.0	 99999.0	 99999.0	 99999.0	 0.0	 0.0	 1	 -10.7369849436	 10.7369849436;
	13	 2	 0.0103077	 0.0768946	 0.0230789	 188.5	 188.5	 188.5	 0.0	 0.0	 1	 -10.7369849436	 10.7369849436;
	14	 15	 0.000240318	 0.00107129	 0.0	 99999.0	 99999.0	 99999.0	 0.0	 0.0	 1	 -10.7369849436	 10.7369849436;
	14	 16	 0.000294749	 0.00101159	 0.0	 99999.0	 99999.0	 99999.0	 0.0	 0.0	 1	 -10.7369849436	 10.7369849436;
	14	 17	 0.000213734	 0.00114931	 0.0	 99999.0	 99999.0	 99999.0	 0.0	 0.0	 1	 -10.7369849436	 10.7369849436;
	15	 13	 0.00854831	 0.0396734	 0.0108002	 172.2	 172.2	 172.2	 0.0	 0.0	 1	 -10.7369849436	 10.7369849436;
	18	 19	 0.000233058	 0.00107068	 0.0	 99999.0	 99999.0	 99999.0	 0.0	 0.0	 1	 -10.7369849436	 10.7369849436;
	18	 20	 0.000221237	 0.00106592	 0.0	 99999.0	 99999.0	 99999.0	 0.0	 0.0	 1	 -10.7369849436	 10.7369849436;
	18	 21	 0.000223246	 0.00117177	 0.0	 99999.0	 99999.0	 99999.0	 0.0	 0.0	 1	 -10.7369849436	 10.7369849436;
	20	 22	 0.00183778	 0.00988438	 0.00526795	 198.0	 198.0	 198.0	 0.0	 0.0	 1	 -10.7369849436	 10.7369849436;
	23	 34	 0.00993726	 0.0711268	 0.0198342	 232.2	 232.2	 232.2	 0.0	 0.0	 1	 -10.7369849436	 10.7369849436;
	23	 67	 0.0150706	 0.0831472	 0.0510316	 235.3	 235.3	 235.3	 0.0	 0.0	 1	 -10.7369849436	 10.7369849436;
	24	 25	 0.000296363	 0.00101671	 0.0	 99999.0	 99999.0	 99999.0	 0.0	 0.0	 1	 -10.7369849436	 10.7369849436;
	26	 27	 0.000263167	 0.00107213	 0.0	 99999.0	 99999.0	 99999.0	 0.0	 0.0	 1	 -10.7369849436	 10.7369849436;
	26	 28	 0.000260676	 0.00110676	 0.0	 99999.0	 99999.0	 99999.0	 0.0	 0.0	 1	 -10.7369849436	 10.7369849436;
	28	 38	 0.00792844	 0.038193	 0.0114582	 181.0	 181.0	 181.0	 0.0	 0.0	 1	 -10.7369849436	 10.7369849436;
	29	 28	 0.00500908	 0.030627	 0.00999978	 171.9	 171.9	 171.9	 0.0	 0.0	 1	 -10.7369849436	 10.7369849436;
	29	 30	 0.000276582	 0.00116564	 0.0	 99999.0	 99999.0	 99999.0	 0.0	 0.0	 1	 -10.7369849436	 10.7369849436;
	29	 38	 0.00323569	 0.017757	 0.00675138	 184.4	 184.4	 184.4	 0.0	 0.0	 1	 -10.7369849436	 10.7369849436;
	31	 32	 0.000248262	 0.00102108	 0.0	 99999.0	 99999.0	 99999.0	 0.0	 0.0	 1	 -10.7369849436	 10.7369849436;
	33	 34	 0.00025416	 0.0011124	 0.0	 99999.0	 99999.0	 99999.0	 0.0	 0.0	 1	 -10.7369849436	 10.7369849436;
	33	 35	 0.00028584	 0.00102513	 0.0	 99999.0	 99999.0	 99999.0	 0.0	 0.0	 1	 -10.7369849436	 10.7369849436;
	36	 31	 0.00373217	 0.0258558	 0.0151059	 181.1	 181.1	 181.1	 0.0	 0.0	 1	 -10.7369849436	 10.7369849436;
	36	 67	 0.0118595	 0.0609168	 0.02453	 195.1	 195.1	 195.1	 0.0	 0.0	 1	 -10.7369849436	 10.7369849436;
	37	 38	 0.000295744	 0.00108145	 0.0	 99999.0	 99999.0	 99999.0	 0.0	 0.0	 1	 -10.7369849436	 10.7369849436;
	38	 52	 0.0050569	 0.0239615	 0.0334364	 183.7	 183.7	 183.7	 0.0	 0.0	 1	 -10.7369849436	 10.7369849436;
	38	 58	 0.0209064	 0.110895	 0.0358414	 203.7	 203.7	 203.7	 0.0	 0.0	 1	 -10.7369849436	 10.7369849436;
	39	 9	 0.0154259	 0.0770637	 0.0274455	 192.7	 192.7	 192.7	 0.0	 0.0	 1	 -10.7369849436	 10.7369849436;
	39	 40	 0.000255113	 0.00106022	 0.0	 99999.0	 99999.0	 99999.0	 0.0	 0.0	 1	 -10.7369849436	 10.7369849436;
	41	 42	 0.00300978	 0.0164175	 0.00456298	 212.1	 212.1	 212.1	 0.0	 0.0	 1	 -10.7369849436	 10.7369849436;
	41	 45	 0.00401174	 0.022881	 0.0148951	 220.5	 220.5	 220.5	 0.0	 0.0	 1	 -10.7369849436	 10.7369849436;
	42	 22	 0.00322686	 0.0204235	 0.0141366	 194.6	 194.6	 194.6	 0.0	 0.0	 1	 -10.7369849436	 10.7369849436;
	43	 44	 0.00022617	 0.0011029	 0.0	 99999.0	 99999.0	 99999.0	 0.0	 0.0	 1	 -10.7369849436	 10.7369849436;
	43	 45	 0.000218641	 0.00113473	 0.0	 99999.0	 99999.0	 99999.0	 0.0	 0.0	 1	 -10.7369849436	 10.7369849436;
	45	 54	 0.00842829	 0.0443038	 0.0155786	 210.6	 210.6	 210.6	 0.0	 0.0	 1	 -10.7369849436	 10.7369849436;
	46	 36	 0.00484947	 0.0273324	 0.00735161	 175.2	 175.2	 175.2	 0.0	 0.0	 1	 -10.7369849436	 10.7369849436;
	47	 48	 0.00480948	 0.0326325	 0.0145874	 188.9	 188.9	 188.9	 0.0	 0.0	 1	 -10.7369849436	 10.7369849436;
	47	 87	 0.0121747	 0.0916921	 0.0260095	 202.3	 202.3	 202.3	 0.0	 0.0	 1	 -10.7369849436	 10.7369849436;
	48	 4	 0.0180487	 0.133765	 0.0290435	 194.4	 194.4	 194.4	 0.0	 0.0	 1	 -10.7369849436	 10.7369849436;
	48	 51	 0.00276034	 0.018834	 0.00348461	 204.9	 204.9	 204.9	 0.0	 0.0	 1	 -10.7369849436	 10.7369849436;
	49	 50	 0.000262796	 0.00111647	 0.0	 99999.0	 99999.0	 99999.0	 0.0	 0.0	 1	 -10.7369849436	 10.7369849436;
	49	 51	 0.000274712	 0.0010406	 0.0	 99999.0	 99999.0	 99999.0	 0.0	 0.0	 1	 -10.7369849436	 10.7369849436;
	51	 4	 0.0177994	 0.0938833	 0.0440444	 208.5	 208.5	 208.5	 0.0	 0.0	 1	 -10.7369849436	 10.7369849436;
	52	 46	 0.00847341	 0.0504615	 0.0151414	 170.1	 170.1	 170.1	 0.0	 0.0	 1	 -10.7369849436	 10.7369849436;
	53	 56	 0.0026986	 0.0170124	 0.00543622	 187.7	 187.7	 187.7	 0.0	 0.0	 1	 -10.7369849436	 10.7369849436;
	54	 55	 0.000267535	 0.00102944	 0.0	 99999.0	 99999.0	 99999.0	 0.0	 0.0	 1	 -10.7369849436	 10.7369849436;
	56	 54	 0.00136943	 0.00881106	 0.00151099	 194.5	 194.5	 194.5	 0.0	 0.0	 1	 -10.7369849436	 10.7369849436;
	57	 53	 0.00223348	 0.0145509	 0.00856153	 208.2	 208.2	 208.2	 0.0	 0.0	 1	 -10.7369849436	 10.7369849436;
	57	 2895	 0.0118735	 0.066884	 0.0198422	 130.2	 130.2	 130.2	 0.0	 0.0	 1	 -10.7369849436	 10.7369849436;
	58	 59	 0.000256747	 0.00108981	 0.0	 99999.0	 99999.0	 99999.0	 0.0	 0.0	 1	 -10.7369849436	 10.7369849436;
	60	 61	 0.000275762	 0.0010857	 0.0	 99999.0	 99999.0	 99999.0	 0.0	 0.0	 1	 -10.7369849436	 10.7369849436;
	61	 64	 0.00580274	 0.0266296	 0.015816	 248.0	 248.0	 248.0	 0.0	 0.0	 1	 -10.7369849436	 10.7369849436;
	62	 63	 0.000222846	 0.0010645	 0.0	 99999.0	 99999.0	 99999.0	 0.0	 0.0	 1	 -10.7369849436	 10.7369849436;
	62	 64	 0.000229604	 0.00118248	 0.0	 99999.0	 99999.0	 99999.0	 0.0	 0.0	 1	 -10.7369849436	 10.7369849436;
	64	 57	 0.00310946	 0.0155991	 0.00992615	 225.1	 225.1	 225.1	 0.0	 0.0	 1	 -10.7369849436	 10.7369849436;
	64	 2895	 0.00494029	 0.0325133	 0.0258559	 201.0	 201.0	 201.0	 0.0	 0.0	 1	 -10.7369849436	 10.7369849436;
	65	 61	 0.00516397	 0.0288223	 0.00962152	 220.1	 220.1	 220.1	 0.0	 0.0	 1	 -10.7369849436	 10.7369849436;
	66	 68	 0.000220999	 0.00107126	 0.0	 99999.0	 99999.0	 99999.0	 0.0	 0.0	 1	 -10.7369849436	 10.7369849436;
	66	 69	 0.000261975	 0.00107755	 0.0	 99999.0	 99999.0	 99999.0	 0.0	 0.0	 1	 -10.7369849436	 10.7369849436;
	66	 70	 0.000256828	 0.00113082	 0.0	 99999.0	 99999.0	 99999.0	 0.0	 0.0	 1	 -10.7369849436	 10.7369849436;
	67	 72	 0.00905639	 0.0461122	 0.0177363	 229.9	 229.9	 229.9	 0.0	 0.0	 1	 -10.7369849436	 10.7369849436;
	69	 5279	 0.00205026	 0.0221739	 0.400221	 1017.2	 1017.2	 1017.2	 0.0	 0.0	 1	 -10.7369849436	 10.7369849436;
	71	 41	 0.0100337	 0.0706134	 0.0310413	 229.4	 229.4	 229.4	 0.0	 0.0	 1	 -10.7369849436	 10.7369849436;
	71	 72	 0.00367941	 0.024408	 0.0235596	 232.5	 232.5	 232.5	 0.0	 0.0	 1	 -10.7369849436	 10.7369849436;
	72	 90	 0.0147962	 0.0983813	 0.0211675	 181.8	 181.8	 181.8	 0.0	 0.0	 1	 -10.7369849436	 10.7369849436;
	73	 61	 0.00945833	 0.04672	 0.0128351	 225.1	 225.1	 225.1	 0.0	 0.0	 1	 -10.7369849436	 10.7369849436;
	73	 74	 0.00557959	 0.0348959	 0.0168342	 222.5	 222.5	 222.5	 0.0	 0.0	 1	 -10.7369849436	 10.7369849436;
	74	 88	 0.0192578	 0.097812	 0.0965501	 205.7	 205.7	 205.7	 0.0	 0.0	 1	 -10.7369849436	 10.7369849436;
	74	 2895	 0.00971318	 0.0370195	 0.0191378	 213.3	 213.3	 213.3	 0.0	 0.0	 1	 -10.7369849436	 10.7369849436;
	75	 76	 0.000287465	 0.00110163	 0.0	 99999.0	 99999.0	 99999.0	 0.0	 0.0	 1	 -10.7369849436	 10.7369849436;
	75	 77	 0.000288199	 0.00114788	 0.0	 99999.0	 99999.0	 99999.0	 0.0	 0.0	 1	 -10.7369849436	 10.7369849436;
	75	 78	 0.000292492	 0.00116271	 0.0	 99999.0	 99999.0	 99999.0	 0.0	 0.0	 1	 -10.7369849436	 10.7369849436;
	77	 79	 0.00167646	 0.00892587	 0.00940781	 219.2	 219.2	 219.2	 0.0	 0.0	 1	 -10.7369849436	 10.7369849436;
	77	 92	 0.00228954	 0.0132	 0.013492	 260.2	 260.2	 260.2	 0.0	 0.0	 1	 -10.7369849436	 10.7369849436;
	79	 80	 0.000274577	 0.00110522	 0.0	 99999.0	 99999.0	 99999.0	 0.0	 0.0	 1	 -10.7369849436	 10.7369849436;
	79	 81	 0.00270733	 0.0193981	 0.00787923	 213.5	 213.5	 213.5	 0.0	 0.0	 1	 -10.7369849436	 10.7369849436;
	79	 2636	 0.0030448	 0.0213698	 0.00858524	 248.7	 248.7	 248.7	 0.0	 0.0	 1	 -10.7369849436	 10.7369849436;
	81	 61	 0.00539911	 0.0292053	 0.0210788	 251.3	 251.3	 251.3	 0.0	 0.0	 1	 -10.7369849436	 10.7369849436;
	81	 65	 0.00525124	 0.0283925	 0.0087728	 226.4	 226.4	 226.4	 0.0	 0.0	 1	 -10.7369849436	 10.7369849436;
	82	 87	 0.00179376	 0.0148562	 0.00331543	 220.9	 220.9	 220.9	 0.0	 0.0	 1	 -10.7369849436	 10.7369849436;
	83	 82	 0.00165531	 0.00984154	 0.0145655	 236.3	 236.3	 236.3	 0.0	 0.0	 1	 -10.7369849436	 10.7369849436;
	83	 84	 0.00021367	 0.00105025	 0.0	 99999.0	 99999.0	 99999.0	 0.0	 0.0	 1	 -10.7369849436	 10.7369849436;
	83	 120	 0.008186	 0.0413229	 0.0281057	 245.2	 245.2	 245.2	 0.0	 0.0	 1	 -10.7369849436	 10.7369849436;
	85	 86	 0.000297915	 0.00102214	 0.0	 99999.0	 99999.0	 99999.0	 0.0	 0.0	 1	 -10.7369849436	 10.7369849436;
	85	 87	 0.000232392	 0.00118541	 0.0	 99999.0	 99999.0	 99999.0	 0.0	 0.0	 1	 -10.7369849436	 10.7369849436;
	87	 51	 0.0114646	 0.0539021	 0.0407859	 227.0	 227.0	 227.0	 0.0	 0.0	 1	 -10.7369849436	 10.7369849436;
	87	 74	 0.0135517	 0.0770021	 0.0893547	 225.4	 225.4	 225.4	 0.0	 0.0	 1	 -10.7369849436	 10.7369849436;
	88	 82	 0.00332317	 0.0247662	 0.00437626	 188.4	 188.4	 188.4	 0.0	 0.0	 1	 -10.7369849436	 10.7369849436;
	88	 87	 0.00514988	 0.028742	 0.00869016	 204.5	 204.5	 204.5	 0.0	 0.0	 1	 -10.7369849436	 10.7369849436;
	89	 58	 0.00675474	 0.0405749	 0.0260046	 207.9	 207.9	 207.9	 0.0	 0.0	 1	 -10.7369849436	 10.7369849436;
	90	 146	 0.0142281	 0.0738892	 0.0199812	 188.3	 188.3	 188.3	 0.0	 0.0	 1	 -10.7369849436	 10.7369849436;
	91	 124	 0.00784814	 0.0584211	 0.0228521	 240.8	 240.8	 240.8	 0.0	 0.0	 1	 -10.7369849436	 10.7369849436;
	92	 93	 0.00591371	 0.0356731	 0.0170562	 255.1	 255.1	 255.1	 0.0	 0.0	 1	 -10.7369849436	 10.7369849436;
	93	 95	 0.00301221	 0.0179469	 0.0137887	 238.0	 238.0	 238.0	 0.0	 0.0	 1	 -10.7369849436	 10.7369849436;
	94	 95	 0.00151085	 0.00767252	 0.00344515	 222.0	 222.0	 222.0	 0.0	 0.0	 1	 -10.7369849436	 10.7369849436;
	94	 152	 0.0083566	 0.042344	 0.0223516	 232.7	 232.7	 232.7	 0.0	 0.0	 1	 -10.7369849436	 10.7369849436;
	96	 94	 0.00358068	 0.0222702	 0.0134234	 234.3	 234.3	 234.3	 0.0	 0.0	 1	 -10.7369849436	 10.7369849436;
	96	 112	 0.00410932	 0.026859	 0.0143546	 226.9	 226.9	 226.9	 0.0	 0.0	 1	 -10.7369849436	 10.7369849436;
	97	 99	 0.000279319	 0.00118875	 0.0	 99999.0	 99999.0	 99999.0	 0.0	 0.0	 1	 -10.7369849436	 10.7369849436;
	97	 100	 0.000292765	 0.00115984	 0.0	 99999.0	 99999.0	 99999.0	 0.0	 0.0	 1	 -10.7369849436	 10.7369849436;
	97	 101	 0.000209611	 0.00103469	 0.0	 99999.0	 99999.0	 99999.0	 0.0	 0.0	 1	 -10.7369849436	 10.7369849436;
	97	 102	 0.000212516	 0.00107924	 0.0	 99999.0	 99999.0	 99999.0	 0.0	 0.0	 1	 -10.7369849436	 10.7369849436;
	100	 195	 0.000676388	 0.00845757	 0.338719	 1166.2	 1166.2	 1166.2	 0.0	 0.0	 1	 -10.7369849436	 10.7369849436;
	103	 91	 0.00302494	 0.0186989	 0.0192526	 248.2	 248.2	 248.2	 0.0	 0.0	 1	 -10.7369849436	 10.7369849436;
	103	 98	 0.00112597	 0.00770452	 0.00324416	 251.1	 251.1	 251.1	 0.0	 0.0	 1	 -10.7369849436	 10.7369849436;
	104	 106	 0.000281853	 0.00101259	 0.0	 99999.0	 99999.0	 99999.0	 0.0	 0.0	 1	 -10.7369849436	 10.7369849436;
	104	 107	 0.000293028	 0.00101627	 0.0	 99999.0	 99999.0	 99999.0	 0.0	 0.0	 1	 -10.7369849436	 10.7369849436;
	104	 108	 0.000233376	 0.0010201	 0.0	 99999.0	 99999.0	 99999.0	 0.0	 0.0	 1	 -10.7369849436	 10.7369849436;
	104	 109	 0.000286691	 0.00102424	 0.0	 99999.0	 99999.0	 99999.0	 0.0	 0.0	 1	 -10.7369849436	 10.7369849436;
	105	 110	 0.00354138	 0.0170726	 0.0200662	 194.4	 194.4	 194.4	 0.0	 0.0	 1	 -10.7369849436	 10.7369849436;
	105	 182	 0.00740243	 0.0451545	 0.037815	 203.0	 203.0	 203.0	 0.0	 0.0	 1	 -10.7369849436	 10.7369849436;
	110	 111	 0.0123441	 0.0578345	 0.0151121	 157.6	 157.6	 157.6	 0.0	 0.0	 1	 -10.7369849436	 10.7369849436;
	111	 105	 0.00267418	 0.017055	 0.00826641	 196.4	 196.4	 196.4	 0.0	 0.0	 1	 -10.7369849436	 10.7369849436;
	114	 116	 0.000911179	 0.0055895	 0.00237834	 214.6	 214.6	 214.6	 0.0	 0.0	 1	 -10.7369849436	 10.7369849436;
	114	 219	 0.00732598	 0.0427126	 0.0471078	 176.3	 176.3	 176.3	 0.0	 0.0	 1	 -10.7369849436	 10.7369849436;
	115	 117	 0.000294205	 0.00117974	 0.0	 99999.0	 99999.0	 99999.0	 0.0	 0.0	 1	 -10.7369849436	 10.7369849436;
	115	 118	 0.000285933	 0.00101943	 0.0	 99999.0	 99999.0	 99999.0	 0.0	 0.0	 1	 -10.7369849436	 10.7369849436;
	115	 119	 0.000287226	 0.00103247	 0.0	 99999.0	 99999.0	 99999.0	 0.0	 0.0	 1	 -10.7369849436	 10.7369849436;
	116	 120	 0.00166575	 0.00968703	 0.00294853	 232.0	 232.0	 232.0	 0.0	 0.0	 1	 -10.7369849436	 10.7369849436;
	118	 225	 0.000550772	 0.00694234	 0.0711489	 1082.2	 1082.2	 1082.2	 0.0	 0.0	 1	 -10.7369849436	 10.7369849436;
	118	 527	 0.00147554	 0.0183519	 0.33283	 1137.9	 1137.9	 1137.9	 0.0	 0.0	 1	 -10.7369849436	 10.7369849436;
	120	 113	 0.00294467	 0.01365	 0.00704637	 230.8	 230.8	 230.8	 0.0	 0.0	 1	 -10.7369849436	 10.7369849436;
	121	 149	 0.00424646	 0.0241575	 0.0185422	 244.9	 244.9	 244.9	 0.0	 0.0	 1	 -10.7369849436	 10.7369849436;
	122	 123	 0.000284834	 0.00110524	 0.0	 99999.0	 99999.0	 99999.0	 0.0	 0.0	 1	 -10.7369849436	 10.7369849436;
	122	 124	 0.000258744	 0.00110798	 0.0	 99999.0	 99999.0	 99999.0	 0.0	 0.0	 1	 -10.7369849436	 10.7369849436;
	122	 125	 0.000210228	 0.00105956	 0.0	 99999.0	 99999.0	 99999.0	 0.0	 0.0	 1	 -10.7369849436	 10.7369849436;
	124	 127	 0.0035662	 0.0191057	 0.0108626	 268.4	 268.4	 268.4	 0.0	 0.0	 1	 -10.7369849436	 10.7369849436;
	124	 150	 0.0100127	 0.06404	 0.0147109	 226.3	 226.3	 226.3	 0.0	 0.0	 1	 -10.7369849436	 10.7369849436;
	124	 152	 0.00384383	 0.0228885	 0.0312228	 257.0	 257.0	 257.0	 0.0	 0.0	 1	 -10.7369849436	 10.7369849436;
	124	 185	 0.00718296	 0.0413661	 0.0185224	 197.6	 197.6	 197.6	 0.0	 0.0	 1	 -10.7369849436	 10.7369849436;
	126	 128	 0.000286095	 0.00110641	 0.0	 99999.0	 99999.0	 99999.0	 0.0	 0.0	 1	 -10.7369849436	 10.7369849436;
	126	 129	 0.000232372	 0.00117839	 0.0	 99999.0	 99999.0	 99999.0	 0.0	 0.0	 1	 -10.7369849436	 10.7369849436;
	126	 130	 0.000227502	 0.00110434	 0.0	 99999.0	 99999.0	 99999.0	 0.0	 0.0	 1	 -10.7369849436	 10.7369849436;
	127	 121	 0.00314589	 0.0204517	 0.00498603	 251.0	 251.0	 251.0	 0.0	 0.0	 1	 -10.7369849436	 10.7369849436;
	129	 2641	 0.000890902	 0.0115655	 0.233062	 1172.5	 1172.5	 1172.5	 0.0	 0.0	 1	 -10.7369849436	 10.7369849436;
	131	 146	 0.0220676	 0.125856	 0.0274248	 213.8	 213.8	 213.8	 0.0	 0.0	 1	 -10.7369849436	 10.7369849436;
	131	 159	 0.0140605	 0.0801263	 0.083333	 231.1	 231.1	 231.1	 0.0	 0.0	 1	 -10.7369849436	 10.7369849436;
	131	 190	 0.00408795	 0.0219809	 0.00923234	 232.2	 232.2	 232.2	 0.0	 0.0	 1	 -10.7369849436	 10.7369849436;
	132	 5056	 0.00566342	 0.0288446	 0.0236883	 254.9	 254.9	 254.9	 0.0	 0.0	 1	 -10.7369849436	 10.7369849436;
...